Alpelisib
 OpenBabel04082404382D

 30 32  0  0  1  0  0  0  0  0999 V2000
    1.7788   -2.6261    0.0000 C   0  0  0  0  0  0  0  0  0  0  0  0
    2.0878   -1.6750    0.0000 C   0  0  0  0  0  0  0  0  0  0  0  0
    1.5000   -0.8660    0.0000 C   0  0  0  0  0  0  0  0  0  0  0  0
    2.0878   -0.0570    0.0000 S   0  0  0  0  0  0  0  0  0  0  0  0
    3.0388   -0.3660    0.0000 C   0  0  0  0  0  0  0  0  0  0  0  0
    3.0388   -1.3660    0.0000 N   0  0  0  0  0  0  0  0  0  0  0  0
    3.8479    0.2218    0.0000 N   0  0  0  0  0  0  0  0  0  0  0  0
    4.7614   -0.1850    0.0000 C   0  0  0  0  0  0  0  0  0  0  0  0
    4.8659   -1.1795    0.0000 O   0  0  0  0  0  0  0  0  0  0  0  0
    5.5704    0.4028    0.0000 N   0  0  0  0  0  0  0  0  0  0  0  0
    5.5704    1.4028    0.0000 C   0  0  0  0  0  0  0  0  0  0  0  0
    6.5215    1.7118    0.0000 C   0  0  0  0  0  0  0  0  0  0  0  0
    7.1093    0.9028    0.0000 C   0  0  0  0  0  0  0  0  0  0  0  0
    6.5215    0.0938    0.0000 C   0  0  3  0  0  0  0  0  0  0  0  0
    6.8305   -0.8573    0.0000 C   0  0  0  0  0  0  0  0  0  0  0  0
    6.1614   -1.6004    0.0000 O   0  0  0  0  0  0  0  0  0  0  0  0
    7.8086   -1.0652    0.0000 N   0  0  0  0  0  0  0  0  0  0  0  0
    0.5000   -0.8660    0.0000 C   0  0  0  0  0  0  0  0  0  0  0  0
    0.0000   -1.7321    0.0000 C   0  0  0  0  0  0  0  0  0  0  0  0
   -1.0000   -1.7321    0.0000 C   0  0  0  0  0  0  0  0  0  0  0  0
   -1.5000   -0.8660    0.0000 N   0  0  0  0  0  0  0  0  0  0  0  0
   -1.0000   -0.0000    0.0000 C   0  0  0  0  0  0  0  0  0  0  0  0
    0.0000    0.0000    0.0000 C   0  0  0  0  0  0  0  0  0  0  0  0
   -1.5000   -2.5981    0.0000 C   0  0  0  0  0  0  0  0  0  0  0  0
   -1.5000   -3.5981    0.0000 C   0  0  0  0  0  0  0  0  0  0  0  0
   -0.6340   -3.0981    0.0000 C   0  0  0  0  0  0  0  0  0  0  0  0
   -2.5000   -2.5981    0.0000 C   0  0  0  0  0  0  0  0  0  0  0  0
   -3.3660   -3.0981    0.0000 F   0  0  0  0  0  0  0  0  0  0  0  0
   -2.5000   -3.5981    0.0000 F   0  0  0  0  0  0  0  0  0  0  0  0
   -3.0000   -1.7321    0.0000 F   0  0  0  0  0  0  0  0  0  0  0  0
  1  2  1  0  0  0  0
  2  6  1  0  0  0  0
  2  3  2  0  0  0  0
  3  4  1  0  0  0  0
  3 18  1  0  0  0  0
  4  5  1  0  0  0  0
  5  6  2  0  0  0  0
  5  7  1  0  0  0  0
  7  8  1  0  0  0  0
  8  9  2  0  0  0  0
  8 10  1  0  0  0  0
 10 14  1  0  0  0  0
 10 11  1  0  0  0  0
 11 12  1  0  0  0  0
 12 13  1  0  0  0  0
 13 14  1  0  0  0  0
 14 15  1  0  0  0  0
 15 16  2  0  0  0  0
 15 17  1  0  0  0  0
 18 23  1  0  0  0  0
 18 19  2  0  0  0  0
 19 20  1  0  0  0  0
 20 21  2  0  0  0  0
 20 24  1  0  0  0  0
 21 22  1  0  0  0  0
 22 23  2  0  0  0  0
 24 25  1  0  0  0  0
 24 26  1  0  0  0  0
 24 27  1  0  0  0  0
 27 28  1  0  0  0  0
 27 29  1  0  0  0  0
 27 30  1  0  0  0  0
M  END
$$$$
Serabelisib
 OpenBabel04082404382D

 27 31  0  0  0  0  0  0  0  0999 V2000
    7.8284    2.2281    0.0000 C   0  0  0  0  0  0  0  0  0  0  0  0
    8.8066    2.4360    0.0000 C   0  0  0  0  0  0  0  0  0  0  0  0
    9.4757    1.6928    0.0000 O   0  0  0  0  0  0  0  0  0  0  0  0
    9.1667    0.7418    0.0000 C   0  0  0  0  0  0  0  0  0  0  0  0
    8.1885    0.5339    0.0000 C   0  0  0  0  0  0  0  0  0  0  0  0
    7.5194    1.2770    0.0000 N   0  0  0  0  0  0  0  0  0  0  0  0
    6.5413    1.0691    0.0000 C   0  0  0  0  0  0  0  0  0  0  0  0
    5.8721    1.8122    0.0000 O   0  0  0  0  0  0  0  0  0  0  0  0
    6.2322    0.1180    0.0000 C   0  0  0  0  0  0  0  0  0  0  0  0
    6.8200   -0.6910    0.0000 C   0  0  0  0  0  0  0  0  0  0  0  0
    6.2322   -1.5000    0.0000 N   0  0  0  0  0  0  0  0  0  0  0  0
    5.2812   -1.1910    0.0000 C   0  0  0  0  0  0  0  0  0  0  0  0
    5.2812   -0.1910    0.0000 N   0  0  0  0  0  0  0  0  0  0  0  0
    4.4152    0.3090    0.0000 C   0  0  0  0  0  0  0  0  0  0  0  0
    3.5491   -0.1910    0.0000 C   0  0  0  0  0  0  0  0  0  0  0  0
    3.5491   -1.1910    0.0000 C   0  0  0  0  0  0  0  0  0  0  0  0
    4.4152   -1.6910    0.0000 C   0  0  0  0  0  0  0  0  0  0  0  0
    2.6831    0.3090    0.0000 C   0  0  0  0  0  0  0  0  0  0  0  0
    1.8171   -0.1910    0.0000 C   0  0  0  0  0  0  0  0  0  0  0  0
    0.9511    0.3090    0.0000 C   0  0  0  0  0  0  0  0  0  0  0  0
    0.9511    1.3090    0.0000 C   0  0  0  0  0  0  0  0  0  0  0  0
    1.8171    1.8090    0.0000 C   0  0  0  0  0  0  0  0  0  0  0  0
    2.6831    1.3090    0.0000 C   0  0  0  0  0  0  0  0  0  0  0  0
    0.0000    1.6180    0.0000 O   0  0  0  0  0  0  0  0  0  0  0  0
   -0.5878    0.8090    0.0000 C   0  0  0  0  0  0  0  0  0  0  0  0
    0.0000   -0.0000    0.0000 N   0  0  0  0  0  0  0  0  0  0  0  0
   -1.5878    0.8090    0.0000 N   0  0  0  0  0  0  0  0  0  0  0  0
  1  6  1  0  0  0  0
  1  2  1  0  0  0  0
  2  3  1  0  0  0  0
  3  4  1  0  0  0  0
  4  5  1  0  0  0  0
  5  6  1  0  0  0  0
  6  7  1  0  0  0  0
  7  8  2  0  0  0  0
  7  9  1  0  0  0  0
  9 13  1  0  0  0  0
  9 10  2  0  0  0  0
 10 11  1  0  0  0  0
 11 12  2  0  0  0  0
 12 17  1  0  0  0  0
 12 13  1  0  0  0  0
 13 14  1  0  0  0  0
 14 15  2  0  0  0  0
 15 16  1  0  0  0  0
 15 18  1  0  0  0  0
 16 17  2  0  0  0  0
 18 23  1  0  0  0  0
 18 19  2  0  0  0  0
 19 20  1  0  0  0  0
 20 26  1  0  0  0  0
 20 21  2  0  0  0  0
 21 22  1  0  0  0  0
 21 24  1  0  0  0  0
 22 23  2  0  0  0  0
 24 25  1  0  0  0  0
 25 26  2  0  0  0  0
 25 27  1  0  0  0  0
M  END
$$$$
AZD8835
 OpenBabel04082404382D

 34 37  0  0  0  0  0  0  0  0999 V2000
   -1.4013    4.7863    0.0000 C   0  0  0  0  0  0  0  0  0  0  0  0
   -2.3958    4.6817    0.0000 C   0  0  0  0  0  0  0  0  0  0  0  0
   -2.8025    3.7682    0.0000 N   0  0  0  0  0  0  0  0  0  0  0  0
   -2.3025    2.9022    0.0000 C   0  0  0  0  0  0  0  0  0  0  0  0
   -2.9716    2.1590    0.0000 N   0  0  0  0  0  0  0  0  0  0  0  0
   -3.8852    2.5658    0.0000 C   0  0  0  0  0  0  0  0  0  0  0  0
   -3.7807    3.5603    0.0000 N   0  0  0  0  0  0  0  0  0  0  0  0
   -4.7512    2.0658    0.0000 C   0  0  0  0  0  0  0  0  0  0  0  0
   -4.7512    1.0658    0.0000 C   0  0  0  0  0  0  0  0  0  0  0  0
   -5.6172    0.5658    0.0000 C   0  0  0  0  0  0  0  0  0  0  0  0
   -6.4833    1.0658    0.0000 N   0  0  0  0  0  0  0  0  0  0  0  0
   -6.4833    2.0658    0.0000 C   0  0  0  0  0  0  0  0  0  0  0  0
   -5.6172    2.5658    0.0000 C   0  0  0  0  0  0  0  0  0  0  0  0
   -7.3493    0.5658    0.0000 C   0  0  0  0  0  0  0  0  0  0  0  0
   -8.2153    1.0658    0.0000 O   0  0  0  0  0  0  0  0  0  0  0  0
   -7.3493   -0.4342    0.0000 C   0  0  0  0  0  0  0  0  0  0  0  0
   -6.4833   -0.9342    0.0000 C   0  0  0  0  0  0  0  0  0  0  0  0
   -6.4833   -1.9342    0.0000 O   0  0  0  0  0  0  0  0  0  0  0  0
   -1.3080    2.7976    0.0000 C   0  0  0  0  0  0  0  0  0  0  0  0
   -0.7202    3.6067    0.0000 C   0  0  0  0  0  0  0  0  0  0  0  0
    0.2743    3.5021    0.0000 N   0  0  0  0  0  0  0  0  0  0  0  0
    0.6810    2.5886    0.0000 C   0  0  0  0  0  0  0  0  0  0  0  0
    0.0933    1.7796    0.0000 C   0  0  0  0  0  0  0  0  0  0  0  0
   -0.9013    1.8841    0.0000 N   0  0  0  0  0  0  0  0  0  0  0  0
    0.5000    0.8660    0.0000 C   0  0  0  0  0  0  0  0  0  0  0  0
    1.4781    0.6581    0.0000 N   0  0  0  0  0  0  0  0  0  0  0  0
    1.5827   -0.3364    0.0000 N   0  0  0  0  0  0  0  0  0  0  0  0
    0.6691   -0.7431    0.0000 C   0  0  0  0  0  0  0  0  0  0  0  0
    0.0000   -0.0000    0.0000 O   0  0  0  0  0  0  0  0  0  0  0  0
    0.4612   -1.7213    0.0000 C   0  0  0  0  0  0  0  0  0  0  0  0
    0.7702   -2.6723    0.0000 C   0  0  0  0  0  0  0  0  0  0  0  0
    1.4394   -1.9292    0.0000 C   0  0  0  0  0  0  0  0  0  0  0  0
   -0.4898   -2.0303    0.0000 C   0  0  0  0  0  0  0  0  0  0  0  0
    1.6756    2.4841    0.0000 N   0  0  0  0  0  0  0  0  0  0  0  0
  1  2  1  0  0  0  0
  2  3  1  0  0  0  0
  3  7  1  0  0  0  0
  3  4  1  0  0  0  0
  4  5  2  0  0  0  0
  4 19  1  0  0  0  0
  5  6  1  0  0  0  0
  6  7  2  0  0  0  0
  6  8  1  0  0  0  0
  8 13  1  0  0  0  0
  8  9  1  0  0  0  0
  9 10  1  0  0  0  0
 10 11  1  0  0  0  0
 11 12  1  0  0  0  0
 11 14  1  0  0  0  0
 12 13  1  0  0  0  0
 14 15  2  0  0  0  0
 14 16  1  0  0  0  0
 16 17  1  0  0  0  0
 17 18  1  0  0  0  0
 19 24  1  0  0  0  0
 19 20  2  0  0  0  0
 20 21  1  0  0  0  0
 21 22  2  0  0  0  0
 22 23  1  0  0  0  0
 22 34  1  0  0  0  0
 23 24  2  0  0  0  0
 23 25  1  0  0  0  0
 25 29  1  0  0  0  0
 25 26  2  0  0  0  0
 26 27  1  0  0  0  0
 27 28  2  0  0  0  0
 28 29  1  0  0  0  0
 28 30  1  0  0  0  0
 30 31  1  0  0  0  0
 30 32  1  0  0  0  0
 30 33  1  0  0  0  0
M  END
$$$$
Buparlisib
 OpenBabel04082404382D

 29 32  0  0  0  0  0  0  0  0999 V2000
   -2.5981   -4.5000    0.0000 C   0  0  0  0  0  0  0  0  0  0  0  0
   -3.4641   -5.0000    0.0000 C   0  0  0  0  0  0  0  0  0  0  0  0
   -4.3301   -4.5000    0.0000 O   0  0  0  0  0  0  0  0  0  0  0  0
   -4.3301   -3.5000    0.0000 C   0  0  0  0  0  0  0  0  0  0  0  0
   -3.4641   -3.0000    0.0000 C   0  0  0  0  0  0  0  0  0  0  0  0
   -2.5981   -3.5000    0.0000 N   0  0  0  0  0  0  0  0  0  0  0  0
   -1.7321   -3.0000    0.0000 C   0  0  0  0  0  0  0  0  0  0  0  0
   -1.7321   -2.0000    0.0000 N   0  0  0  0  0  0  0  0  0  0  0  0
   -0.8660   -1.5000    0.0000 C   0  0  0  0  0  0  0  0  0  0  0  0
    0.0000   -2.0000    0.0000 N   0  0  0  0  0  0  0  0  0  0  0  0
    0.0000   -3.0000    0.0000 C   0  0  0  0  0  0  0  0  0  0  0  0
   -0.8660   -3.5000    0.0000 C   0  0  0  0  0  0  0  0  0  0  0  0
    0.8660   -3.5000    0.0000 C   0  0  0  0  0  0  0  0  0  0  0  0
    1.7321   -3.0000    0.0000 C   0  0  0  0  0  0  0  0  0  0  0  0
    2.5981   -3.5000    0.0000 N   0  0  0  0  0  0  0  0  0  0  0  0
    2.5981   -4.5000    0.0000 C   0  0  0  0  0  0  0  0  0  0  0  0
    1.7321   -5.0000    0.0000 C   0  0  0  0  0  0  0  0  0  0  0  0
    0.8660   -4.5000    0.0000 C   0  0  0  0  0  0  0  0  0  0  0  0
    0.0000   -5.0000    0.0000 C   0  0  0  0  0  0  0  0  0  0  0  0
   -0.5000   -5.8660    0.0000 F   0  0  0  0  0  0  0  0  0  0  0  0
    0.5000   -5.8660    0.0000 F   0  0  0  0  0  0  0  0  0  0  0  0
   -0.8660   -4.5000    0.0000 F   0  0  0  0  0  0  0  0  0  0  0  0
    3.4641   -5.0000    0.0000 N   0  0  0  0  0  0  0  0  0  0  0  0
   -0.8660   -0.5000    0.0000 N   0  0  0  0  0  0  0  0  0  0  0  0
   -1.7321   -0.0000    0.0000 C   0  0  0  0  0  0  0  0  0  0  0  0
   -1.7321    1.0000    0.0000 C   0  0  0  0  0  0  0  0  0  0  0  0
   -0.8660    1.5000    0.0000 O   0  0  0  0  0  0  0  0  0  0  0  0
   -0.0000    1.0000    0.0000 C   0  0  0  0  0  0  0  0  0  0  0  0
   -0.0000   -0.0000    0.0000 C   0  0  0  0  0  0  0  0  0  0  0  0
  1  6  1  0  0  0  0
  1  2  1  0  0  0  0
  2  3  1  0  0  0  0
  3  4  1  0  0  0  0
  4  5  1  0  0  0  0
  5  6  1  0  0  0  0
  6  7  1  0  0  0  0
  7 12  1  0  0  0  0
  7  8  2  0  0  0  0
  8  9  1  0  0  0  0
  9 10  2  0  0  0  0
  9 24  1  0  0  0  0
 10 11  1  0  0  0  0
 11 12  2  0  0  0  0
 11 13  1  0  0  0  0
 13 18  1  0  0  0  0
 13 14  2  0  0  0  0
 14 15  1  0  0  0  0
 15 16  2  0  0  0  0
 16 17  1  0  0  0  0
 16 23  1  0  0  0  0
 17 18  2  0  0  0  0
 18 19  1  0  0  0  0
 19 20  1  0  0  0  0
 19 21  1  0  0  0  0
 19 22  1  0  0  0  0
 24 29  1  0  0  0  0
 24 25  1  0  0  0  0
 25 26  1  0  0  0  0
 26 27  1  0  0  0  0
 27 28  1  0  0  0  0
 28 29  1  0  0  0  0
M  END
$$$$
Pilaralisib
 OpenBabel04082404382D

 37 40  0  0  0  0  0  0  0  0999 V2000
   -2.4641   -1.0000    0.0000 C   0  0  0  0  0  0  0  0  0  0  0  0
   -1.5981   -1.5000    0.0000 C   0  0  0  0  0  0  0  0  0  0  0  0
   -0.5981   -1.5000    0.0000 C   0  0  0  0  0  0  0  0  0  0  0  0
   -1.5981   -2.5000    0.0000 C   0  0  0  0  0  0  0  0  0  0  0  0
   -2.4641   -3.0000    0.0000 O   0  0  0  0  0  0  0  0  0  0  0  0
   -0.7321   -3.0000    0.0000 N   0  0  0  0  0  0  0  0  0  0  0  0
    0.1340   -2.5000    0.0000 C   0  0  0  0  0  0  0  0  0  0  0  0
    0.1340   -1.5000    0.0000 C   0  0  0  0  0  0  0  0  0  0  0  0
    1.0000   -1.0000    0.0000 C   0  0  0  0  0  0  0  0  0  0  0  0
    1.8660   -1.5000    0.0000 C   0  0  0  0  0  0  0  0  0  0  0  0
    1.8660   -2.5000    0.0000 C   0  0  0  0  0  0  0  0  0  0  0  0
    1.0000   -3.0000    0.0000 C   0  0  0  0  0  0  0  0  0  0  0  0
    1.0000    0.0000    0.0000 S   0  0  0  0  0  0  0  0  0  0  0  0
    2.0000   -0.0000    0.0000 O   0  0  0  0  0  0  0  0  0  0  0  0
    1.0000    1.0000    0.0000 O   0  0  0  0  0  0  0  0  0  0  0  0
    0.0000   -0.0000    0.0000 N   0  0  0  0  0  0  0  0  0  0  0  0
   -0.5000    0.8660    0.0000 C   0  0  0  0  0  0  0  0  0  0  0  0
   -1.5000    0.8660    0.0000 N   0  0  0  0  0  0  0  0  0  0  0  0
   -2.0000    1.7321    0.0000 C   0  0  0  0  0  0  0  0  0  0  0  0
   -3.0000    1.7321    0.0000 C   0  0  0  0  0  0  0  0  0  0  0  0
   -3.5000    2.5981    0.0000 C   0  0  0  0  0  0  0  0  0  0  0  0
   -3.0000    3.4641    0.0000 C   0  0  0  0  0  0  0  0  0  0  0  0
   -2.0000    3.4641    0.0000 C   0  0  0  0  0  0  0  0  0  0  0  0
   -1.5000    2.5981    0.0000 C   0  0  0  0  0  0  0  0  0  0  0  0
   -0.5000    2.5981    0.0000 N   0  0  0  0  0  0  0  0  0  0  0  0
   -0.0000    1.7321    0.0000 C   0  0  0  0  0  0  0  0  0  0  0  0
    1.0000    1.7321    0.0000 N   0  0  0  0  0  0  0  0  0  0  0  0
    1.5000    2.5981    0.0000 C   0  0  0  0  0  0  0  0  0  0  0  0
    1.0000    3.4641    0.0000 C   0  0  0  0  0  0  0  0  0  0  0  0
    1.5000    4.3301    0.0000 C   0  0  0  0  0  0  0  0  0  0  0  0
    2.5000    4.3301    0.0000 C   0  0  0  0  0  0  0  0  0  0  0  0
    3.0000    3.4641    0.0000 C   0  0  0  0  0  0  0  0  0  0  0  0
    2.5000    2.5981    0.0000 C   0  0  0  0  0  0  0  0  0  0  0  0
    4.0000    3.4641    0.0000 O   0  0  0  0  0  0  0  0  0  0  0  0
    4.5000    4.3301    0.0000 C   0  0  0  0  0  0  0  0  0  0  0  0
   -0.0000    3.4641    0.0000 Cl  0  0  0  0  0  0  0  0  0  0  0  0
   -1.0981   -0.6340    0.0000 N   0  0  0  0  0  0  0  0  0  0  0  0
  1  2  1  0  0  0  0
  2  3  1  0  0  0  0
  2  4  1  0  0  0  0
  2 37  1  0  0  0  0
  4  5  2  0  0  0  0
  4  6  1  0  0  0  0
  6  7  1  0  0  0  0
  7 12  1  0  0  0  0
  7  8  2  0  0  0  0
  8  9  1  0  0  0  0
  9 10  2  0  0  0  0
  9 13  1  0  0  0  0
 10 11  1  0  0  0  0
 11 12  2  0  0  0  0
 13 14  2  0  0  0  0
 13 15  2  0  0  0  0
 13 16  1  0  0  0  0
 16 17  1  0  0  0  0
 17 26  1  0  0  0  0
 17 18  2  0  0  0  0
 18 19  1  0  0  0  0
 19 24  1  0  0  0  0
 19 20  2  0  0  0  0
 20 21  1  0  0  0  0
 21 22  2  0  0  0  0
 22 23  1  0  0  0  0
 23 24  2  0  0  0  0
 24 25  1  0  0  0  0
 25 26  2  0  0  0  0
 26 27  1  0  0  0  0
 27 28  1  0  0  0  0
 28 33  1  0  0  0  0
 28 29  2  0  0  0  0
 29 30  1  0  0  0  0
 29 36  1  0  0  0  0
 30 31  2  0  0  0  0
 31 32  1  0  0  0  0
 32 33  2  0  0  0  0
 32 34  1  0  0  0  0
 34 35  1  0  0  0  0
M  END
$$$$
Sonolisib
 OpenBabel04082404382D

 38 41  0  0  1  0  0  0  0  0999 V2000
    2.3839    4.4863    0.0000 C   0  0  0  0  0  0  0  0  0  0  0  0
    1.5923    3.9108    0.0000 C   0  0  0  0  0  0  0  0  0  0  0  0
    0.6981    4.3086    0.0000 O   0  0  0  0  0  0  0  0  0  0  0  0
    1.6949    2.9375    0.0000 O   0  0  0  0  0  0  0  0  0  0  0  0
    0.8474    2.4479    0.0000 C   0  0  3  0  0  0  0  0  0  0  0  0
   -0.0008    2.9373    0.0000 C   0  0  0  0  0  0  0  0  0  0  0  0
   -0.8488    2.4474    0.0000 C   0  0  3  0  0  0  0  0  0  0  0  0
   -0.8485    1.4687    0.0000 C   0  0  3  0  0  0  0  0  0  0  0  0
   -2.5436    1.4682    0.0000 C   0  0  0  0  0  0  0  0  0  0  0  0
   -2.5439    2.4469    0.0000 C   0  0  0  0  0  0  0  0  0  0  0  0
   -1.6971    2.9368    0.0000 C   0  0  0  0  0  0  0  0  0  0  0  0
   -1.6977    3.9456    0.0000 O   0  0  0  0  0  0  0  0  0  0  0  0
   -0.0003    0.9793    0.0000 C   0  0  0  0  0  0  0  0  0  0  0  0
    0.8477    1.4692    0.0000 C   0  0  0  0  0  0  0  0  0  0  0  0
    1.6960    0.9798    0.0000 C   0  0  3  0  0  0  0  0  0  0  0  0
    2.5434    1.4697    0.0000 C   0  0  3  0  0  0  0  0  0  0  0  0
    3.3910    0.9803    0.0000 O   0  0  0  0  0  0  0  0  0  0  0  0
    3.3913    0.0010    0.0000 C   0  0  0  0  0  0  0  0  0  0  0  0
    4.2652   -0.5031    0.0000 O   0  0  0  0  0  0  0  0  0  0  0  0
    2.5439   -0.4889    0.0000 C   0  0  0  0  0  0  0  0  0  0  0  0
    2.5442   -1.4677    0.0000 C   0  0  0  0  0  0  0  0  0  0  0  0
    3.1198   -2.2594    0.0000 N   0  0  0  0  0  0  0  0  0  0  0  0
    2.7219   -3.1537    0.0000 C   0  0  0  0  0  0  0  0  0  0  0  0
    3.2975   -3.9454    0.0000 C   0  0  0  0  0  0  0  0  0  0  0  0
    2.8996   -4.8397    0.0000 C   0  0  0  0  0  0  0  0  0  0  0  0
    4.0932   -2.1568    0.0000 C   0  0  0  0  0  0  0  0  0  0  0  0
    4.6687   -2.9486    0.0000 C   0  0  0  0  0  0  0  0  0  0  0  0
    4.2709   -3.8428    0.0000 C   0  0  0  0  0  0  0  0  0  0  0  0
    1.6963    0.0005    0.0000 C   0  0  0  0  0  0  0  0  0  0  0  0
    0.8483   -0.4894    0.0000 C   0  0  0  0  0  0  0  0  0  0  0  0
    0.0000   -0.0000    0.0000 C   0  0  0  0  0  0  0  0  0  0  0  0
   -0.8674   -0.5011    0.0000 O   0  0  0  0  0  0  0  0  0  0  0  0
    0.8486   -1.4912    0.0000 O   0  0  0  0  0  0  0  0  0  0  0  0
    2.5431    2.4485    0.0000 C   0  0  0  0  0  0  0  0  0  0  0  0
    3.1182    3.2405    0.0000 O   0  0  0  0  0  0  0  0  0  0  0  0
    4.0917    3.1385    0.0000 C   0  0  0  0  0  0  0  0  0  0  0  0
    1.6957    1.9798    0.0000 C   0  0  0  0  0  0  0  0  0  0  0  0
   -0.8491    3.4474    0.0000 C   0  0  0  0  0  0  0  0  0  0  0  0
  1  2  1  0  0  0  0
  2  3  2  0  0  0  0
  2  4  1  0  0  0  0
  4  5  1  0  0  0  0
  5 14  1  1  0  0  0
  5  6  1  0  0  0  0
  6  7  1  0  0  0  0
  7 11  1  0  0  0  0
  7  8  1  0  0  0  0
  7 38  1  0  0  0  0
  8  9  1  0  0  0  0
  8 13  1  1  0  0  0
  9 10  1  0  0  0  0
 10 11  1  0  0  0  0
 11 12  2  0  0  0  0
 13 31  1  6  0  0  0
 13 14  2  0  0  0  0
 14 15  1  6  0  0  0
 15 29  1  6  0  0  0
 15 16  1  0  0  0  0
 15 37  1  0  0  0  0
 16 17  1  0  0  0  0
 16 34  1  0  0  0  0
 17 18  1  0  0  0  0
 18 19  2  0  0  0  0
 18 20  1  0  0  0  0
 20 21  2  3  0  0  0
 20 29  1  1  0  0  0
 21 22  1  0  0  0  0
 22 23  1  0  0  0  0
 22 26  1  0  0  0  0
 23 24  1  0  0  0  0
 24 25  2  0  0  0  0
 26 27  1  0  0  0  0
 27 28  2  0  0  0  0
 29 30  2  0  0  0  0
 30 31  1  6  0  0  0
 30 33  1  1  0  0  0
 31 32  2  0  0  0  0
 34 35  1  0  0  0  0
 35 36  1  0  0  0  0
M  END
$$$$
Pictilisib
 OpenBabel04082404382D

 35 40  0  0  0  0  0  0  0  0999 V2000
    1.0000   -1.0000    0.0000 C   0  0  0  0  0  0  0  0  0  0  0  0
    1.0000    0.0000    0.0000 S   0  0  0  0  0  0  0  0  0  0  0  0
    2.0000    0.0000    0.0000 O   0  0  0  0  0  0  0  0  0  0  0  0
    1.0000    1.0000    0.0000 O   0  0  0  0  0  0  0  0  0  0  0  0
   -0.0000   -0.0000    0.0000 N   0  0  0  0  0  0  0  0  0  0  0  0
   -0.5000   -0.8660    0.0000 C   0  0  0  0  0  0  0  0  0  0  0  0
   -1.5000   -0.8660    0.0000 C   0  0  0  0  0  0  0  0  0  0  0  0
   -2.0000   -0.0000    0.0000 N   0  0  0  0  0  0  0  0  0  0  0  0
   -1.5000    0.8660    0.0000 C   0  0  0  0  0  0  0  0  0  0  0  0
   -0.5000    0.8660    0.0000 C   0  0  0  0  0  0  0  0  0  0  0  0
   -3.0000   -0.0000    0.0000 C   0  0  0  0  0  0  0  0  0  0  0  0
   -3.5000   -0.8660    0.0000 C   0  0  0  0  0  0  0  0  0  0  0  0
   -3.0933   -1.7796    0.0000 C   0  0  0  0  0  0  0  0  0  0  0  0
   -3.8364   -2.4487    0.0000 C   0  0  0  0  0  0  0  0  0  0  0  0
   -4.7024   -1.9487    0.0000 C   0  0  0  0  0  0  0  0  0  0  0  0
   -4.4945   -0.9706    0.0000 S   0  0  0  0  0  0  0  0  0  0  0  0
   -5.5685   -2.4487    0.0000 C   0  0  0  0  0  0  0  0  0  0  0  0
   -5.5685   -3.4487    0.0000 N   0  0  0  0  0  0  0  0  0  0  0  0
   -4.7024   -3.9487    0.0000 C   0  0  0  0  0  0  0  0  0  0  0  0
   -3.8364   -3.4487    0.0000 N   0  0  0  0  0  0  0  0  0  0  0  0
   -4.7024   -4.9487    0.0000 C   0  0  0  0  0  0  0  0  0  0  0  0
   -3.8364   -5.4487    0.0000 C   0  0  0  0  0  0  0  0  0  0  0  0
   -2.8854   -5.1397    0.0000 C   0  0  0  0  0  0  0  0  0  0  0  0
   -2.2976   -5.9487    0.0000 N   0  0  0  0  0  0  0  0  0  0  0  0
   -2.8854   -6.7577    0.0000 N   0  0  0  0  0  0  0  0  0  0  0  0
   -3.8364   -6.4487    0.0000 C   0  0  0  0  0  0  0  0  0  0  0  0
   -4.7024   -6.9487    0.0000 C   0  0  0  0  0  0  0  0  0  0  0  0
   -5.5685   -6.4487    0.0000 C   0  0  0  0  0  0  0  0  0  0  0  0
   -5.5685   -5.4487    0.0000 C   0  0  0  0  0  0  0  0  0  0  0  0
   -6.4345   -1.9487    0.0000 N   0  0  0  0  0  0  0  0  0  0  0  0
   -7.3005   -2.4487    0.0000 C   0  0  0  0  0  0  0  0  0  0  0  0
   -8.1665   -1.9487    0.0000 C   0  0  0  0  0  0  0  0  0  0  0  0
   -8.1665   -0.9487    0.0000 O   0  0  0  0  0  0  0  0  0  0  0  0
   -7.3005   -0.4487    0.0000 C   0  0  0  0  0  0  0  0  0  0  0  0
   -6.4345   -0.9487    0.0000 C   0  0  0  0  0  0  0  0  0  0  0  0
  1  2  1  0  0  0  0
  2  3  2  0  0  0  0
  2  4  2  0  0  0  0
  2  5  1  0  0  0  0
  5 10  1  0  0  0  0
  5  6  1  0  0  0  0
  6  7  1  0  0  0  0
  7  8  1  0  0  0  0
  8  9  1  0  0  0  0
  8 11  1  0  0  0  0
  9 10  1  0  0  0  0
 11 12  1  0  0  0  0
 12 16  1  0  0  0  0
 12 13  2  0  0  0  0
 13 14  1  0  0  0  0
 14 20  1  0  0  0  0
 14 15  2  0  0  0  0
 15 16  1  0  0  0  0
 15 17  1  0  0  0  0
 17 18  2  0  0  0  0
 17 30  1  0  0  0  0
 18 19  1  0  0  0  0
 19 20  2  0  0  0  0
 19 21  1  0  0  0  0
 21 29  1  0  0  0  0
 21 22  2  0  0  0  0
 22 26  1  0  0  0  0
 22 23  1  0  0  0  0
 23 24  2  0  0  0  0
 24 25  1  0  0  0  0
 25 26  1  0  0  0  0
 26 27  2  0  0  0  0
 27 28  1  0  0  0  0
 28 29  2  0  0  0  0
 30 35  1  0  0  0  0
 30 31  1  0  0  0  0
 31 32  1  0  0  0  0
 32 33  1  0  0  0  0
 33 34  1  0  0  0  0
 34 35  1  0  0  0  0
M  END
$$$$
Copanlisib
 OpenBabel04082404382D

 35 39  0  0  0  0  0  0  0  0999 V2000
   -5.1962    1.0000    0.0000 C   0  0  0  0  0  0  0  0  0  0  0  0
   -4.3301    1.5000    0.0000 O   0  0  0  0  0  0  0  0  0  0  0  0
   -3.4641    1.0000    0.0000 C   0  0  0  0  0  0  0  0  0  0  0  0
   -2.5981    1.5000    0.0000 C   0  0  0  0  0  0  0  0  0  0  0  0
   -1.7321    1.0000    0.0000 C   0  0  0  0  0  0  0  0  0  0  0  0
   -1.7321    0.0000    0.0000 C   0  0  0  0  0  0  0  0  0  0  0  0
   -2.5981   -0.5000    0.0000 C   0  0  0  0  0  0  0  0  0  0  0  0
   -2.5981   -1.5000    0.0000 C   0  0  0  0  0  0  0  0  0  0  0  0
   -1.8549   -2.1691    0.0000 N   0  0  0  0  0  0  0  0  0  0  0  0
   -2.2617   -3.0827    0.0000 C   0  0  0  0  0  0  0  0  0  0  0  0
   -3.2562   -2.9781    0.0000 C   0  0  0  0  0  0  0  0  0  0  0  0
   -3.4641   -2.0000    0.0000 N   0  0  0  0  0  0  0  0  0  0  0  0
   -4.3301   -1.5000    0.0000 C   0  0  0  0  0  0  0  0  0  0  0  0
   -5.1962   -2.0000    0.0000 N   0  0  0  0  0  0  0  0  0  0  0  0
   -6.0622   -1.5000    0.0000 C   0  0  0  0  0  0  0  0  0  0  0  0
   -6.0622   -0.5000    0.0000 O   0  0  0  0  0  0  0  0  0  0  0  0
   -6.9282   -2.0000    0.0000 C   0  0  0  0  0  0  0  0  0  0  0  0
   -6.9282   -3.0000    0.0000 C   0  0  0  0  0  0  0  0  0  0  0  0
   -7.7942   -3.5000    0.0000 N   0  0  0  0  0  0  0  0  0  0  0  0
   -8.6603   -3.0000    0.0000 C   0  0  0  0  0  0  0  0  0  0  0  0
   -8.6603   -2.0000    0.0000 N   0  0  0  0  0  0  0  0  0  0  0  0
   -7.7942   -1.5000    0.0000 C   0  0  0  0  0  0  0  0  0  0  0  0
   -9.5263   -3.5000    0.0000 N   0  0  0  0  0  0  0  0  0  0  0  0
   -4.3301   -0.5000    0.0000 N   0  0  0  0  0  0  0  0  0  0  0  0
   -3.4641    0.0000    0.0000 C   0  0  0  0  0  0  0  0  0  0  0  0
   -2.5981    2.5000    0.0000 O   0  0  0  0  0  0  0  0  0  0  0  0
   -1.7321    3.0000    0.0000 C   0  0  0  0  0  0  0  0  0  0  0  0
   -0.8660    2.5000    0.0000 C   0  0  0  0  0  0  0  0  0  0  0  0
   -0.8660    1.5000    0.0000 C   0  0  0  0  0  0  0  0  0  0  0  0
    0.0000    1.0000    0.0000 N   0  0  0  0  0  0  0  0  0  0  0  0
    0.8660    1.5000    0.0000 C   0  0  0  0  0  0  0  0  0  0  0  0
    1.7321    1.0000    0.0000 C   0  0  0  0  0  0  0  0  0  0  0  0
    1.7321   -0.0000    0.0000 O   0  0  0  0  0  0  0  0  0  0  0  0
    0.8660   -0.5000    0.0000 C   0  0  0  0  0  0  0  0  0  0  0  0
    0.0000   -0.0000    0.0000 C   0  0  0  0  0  0  0  0  0  0  0  0
  1  2  1  0  0  0  0
  2  3  1  0  0  0  0
  3 25  1  0  0  0  0
  3  4  2  0  0  0  0
  4  5  1  0  0  0  0
  4 26  1  0  0  0  0
  5  6  2  0  0  0  0
  6  7  1  0  0  0  0
  7 25  1  0  0  0  0
  7  8  2  0  0  0  0
  8 12  1  0  0  0  0
  8  9  1  0  0  0  0
  9 10  1  0  0  0  0
 10 11  1  0  0  0  0
 11 12  1  0  0  0  0
 12 13  1  0  0  0  0
 13 14  2  3  0  0  0
 13 24  1  0  0  0  0
 14 15  1  0  0  0  0
 15 16  2  0  0  0  0
 15 17  1  0  0  0  0
 17 22  1  0  0  0  0
 17 18  2  0  0  0  0
 18 19  1  0  0  0  0
 19 20  2  0  0  0  0
 20 21  1  0  0  0  0
 20 23  1  0  0  0  0
 21 22  2  0  0  0  0
 24 25  2  0  0  0  0
 26 27  1  0  0  0  0
 27 28  1  0  0  0  0
 28 29  1  0  0  0  0
 29 30  1  0  0  0  0
 30 35  1  0  0  0  0
 30 31  1  0  0  0  0
 31 32  1  0  0  0  0
 32 33  1  0  0  0  0
 33 34  1  0  0  0  0
 34 35  1  0  0  0  0
M  END
$$$$
B591
 OpenBabel04082404382D

 30 33  0  0  0  0  0  0  0  0999 V2000
    4.8092   -5.8986    0.0000 C   0  0  0  0  0  0  0  0  0  0  0  0
    4.8092   -4.8986    0.0000 C   0  0  0  0  0  0  0  0  0  0  0  0
    5.6752   -4.3986    0.0000 C   0  0  0  0  0  0  0  0  0  0  0  0
    5.6752   -3.3986    0.0000 C   0  0  0  0  0  0  0  0  0  0  0  0
    4.8092   -2.8986    0.0000 C   0  0  0  0  0  0  0  0  0  0  0  0
    3.9432   -3.3986    0.0000 C   0  0  0  0  0  0  0  0  0  0  0  0
    3.9432   -4.3986    0.0000 C   0  0  0  0  0  0  0  0  0  0  0  0
    3.0772   -4.8986    0.0000 C   0  0  0  0  0  0  0  0  0  0  0  0
    5.0171   -1.9204    0.0000 N   0  3  0  0  0  0  0  0  0  0  0  0
    6.0116   -1.8159    0.0000 C   0  0  0  0  0  0  0  0  0  0  0  0
    6.4184   -2.7294    0.0000 N   0  0  0  0  0  0  0  0  0  0  0  0
    7.3965   -2.9373    0.0000 C   0  0  0  0  0  0  0  0  0  0  0  0
    8.0657   -2.1942    0.0000 C   0  0  0  0  0  0  0  0  0  0  0  0
    9.0438   -2.4021    0.0000 C   0  0  0  0  0  0  0  0  0  0  0  0
    9.7129   -1.6590    0.0000 C   0  0  0  0  0  0  0  0  0  0  0  0
    9.4039   -0.7079    0.0000 C   0  0  0  0  0  0  0  0  0  0  0  0
    8.4258   -0.5000    0.0000 C   0  0  0  0  0  0  0  0  0  0  0  0
    7.7566   -1.2431    0.0000 C   0  0  0  0  0  0  0  0  0  0  0  0
    6.7785   -1.0352    0.0000 Br  0  0  0  0  0  0  0  0  0  0  0  0
    4.3480   -1.1773    0.0000 C   0  0  0  0  0  0  0  0  0  0  0  0
    3.3698   -1.3852    0.0000 C   0  0  0  0  0  0  0  0  0  0  0  0
    3.0608   -2.3362    0.0000 C   0  0  0  0  0  0  0  0  0  0  0  0
    2.0827   -2.5442    0.0000 C   0  0  0  0  0  0  0  0  0  0  0  0
    1.4135   -1.8010    0.0000 C   0  0  0  0  0  0  0  0  0  0  0  0
    1.7226   -0.8500    0.0000 C   0  0  0  0  0  0  0  0  0  0  0  0
    2.7007   -0.6420    0.0000 C   0  0  0  0  0  0  0  0  0  0  0  0
    0.5000   -2.2077    0.0000 O   0  0  0  0  0  0  0  0  0  0  0  0
    0.6045   -3.2023    0.0000 C   0  0  0  0  0  0  0  0  0  0  0  0
    1.5827   -3.4102    0.0000 C   0  0  0  0  0  0  0  0  0  0  0  0
   -0.7209   -3.0788    0.0000 Br  0  5  0  0  0  0  0  0  0  0  0  0
  1  2  1  0  0  0  0
  2  7  1  0  0  0  0
  2  3  2  0  0  0  0
  3  4  1  0  0  0  0
  4 11  1  0  0  0  0
  4  5  2  0  0  0  0
  5  6  1  0  0  0  0
  5  9  1  0  0  0  0
  6  7  2  0  0  0  0
  7  8  1  0  0  0  0
  9 10  2  0  0  0  0
  9 20  1  0  0  0  0
 10 11  1  0  0  0  0
 11 12  1  0  0  0  0
 12 13  1  0  0  0  0
 13 18  1  0  0  0  0
 13 14  2  0  0  0  0
 14 15  1  0  0  0  0
 15 16  2  0  0  0  0
 16 17  1  0  0  0  0
 17 18  2  0  0  0  0
 18 19  1  0  0  0  0
 20 21  1  0  0  0  0
 21 26  1  0  0  0  0
 21 22  2  0  0  0  0
 22 23  1  0  0  0  0
 23 29  1  0  0  0  0
 23 24  2  0  0  0  0
 24 25  1  0  0  0  0
 24 27  1  0  0  0  0
 25 26  2  0  0  0  0
 27 28  1  0  0  0  0
 28 29  1  0  0  0  0
M  CHG  2   9   1  30  -1
M  END
$$$$
Taselisib
 OpenBabel04082404382D

 34 38  0  0  0  0  0  0  0  0999 V2000
    7.9970    1.6964    0.0000 C   0  0  0  0  0  0  0  0  0  0  0  0
    7.6738    0.7501    0.0000 C   0  0  0  0  0  0  0  0  0  0  0  0
    8.2494   -0.0676    0.0000 N   0  0  0  0  0  0  0  0  0  0  0  0
    7.6496   -0.8678    0.0000 N   0  0  0  0  0  0  0  0  0  0  0  0
    6.7033   -0.5445    0.0000 C   0  0  0  0  0  0  0  0  0  0  0  0
    6.7182    0.4553    0.0000 N   0  0  0  0  0  0  0  0  0  0  0  0
    5.8855   -1.1202    0.0000 C   0  0  0  0  0  0  0  0  0  0  0  0
    5.8706   -2.1200    0.0000 C   0  0  0  0  0  0  0  0  0  0  0  0
    4.9150   -2.4148    0.0000 N   0  0  0  0  0  0  0  0  0  0  0  0
    4.6346   -3.3747    0.0000 C   0  0  0  0  0  0  0  0  0  0  0  0
    3.7093   -3.7539    0.0000 C   0  0  0  0  0  0  0  0  0  0  0  0
    2.8359   -3.2669    0.0000 O   0  0  0  0  0  0  0  0  0  0  0  0
    2.6720   -2.2804    0.0000 C   0  0  0  0  0  0  0  0  0  0  0  0
    3.3412   -1.5373    0.0000 C   0  0  0  0  0  0  0  0  0  0  0  0
    4.3394   -1.5971    0.0000 C   0  0  0  0  0  0  0  0  0  0  0  0
    4.9392   -0.7970    0.0000 N   0  0  0  0  0  0  0  0  0  0  0  0
    3.0322   -0.5862    0.0000 C   0  0  0  0  0  0  0  0  0  0  0  0
    2.0540   -0.3783    0.0000 C   0  0  0  0  0  0  0  0  0  0  0  0
    1.3849   -1.1215    0.0000 C   0  0  0  0  0  0  0  0  0  0  0  0
    1.6939   -2.0725    0.0000 C   0  0  0  0  0  0  0  0  0  0  0  0
    0.4067   -0.9135    0.0000 C   0  0  0  0  0  0  0  0  0  0  0  0
   -0.3364   -1.5827    0.0000 C   0  0  0  0  0  0  0  0  0  0  0  0
   -1.2024   -1.0827    0.0000 N   0  0  0  0  0  0  0  0  0  0  0  0
   -0.9945   -0.1045    0.0000 N   0  0  0  0  0  0  0  0  0  0  0  0
    0.0000   -0.0000    0.0000 C   0  0  0  0  0  0  0  0  0  0  0  0
   -2.1160   -1.4894    0.0000 C   0  0  0  0  0  0  0  0  0  0  0  0
   -2.7038   -2.2984    0.0000 C   0  0  0  0  0  0  0  0  0  0  0  0
   -1.7092   -2.4030    0.0000 C   0  0  0  0  0  0  0  0  0  0  0  0
   -2.9250   -0.9016    0.0000 C   0  0  0  0  0  0  0  0  0  0  0  0
   -2.8205    0.0929    0.0000 O   0  0  0  0  0  0  0  0  0  0  0  0
   -3.8385   -1.3084    0.0000 N   0  0  0  0  0  0  0  0  0  0  0  0
    7.9443   -1.8233    0.0000 C   0  0  0  0  0  0  0  0  0  0  0  0
    7.2642   -2.5564    0.0000 C   0  0  0  0  0  0  0  0  0  0  0  0
    8.9193   -2.0458    0.0000 C   0  0  0  0  0  0  0  0  0  0  0  0
  1  2  1  0  0  0  0
  2  6  1  0  0  0  0
  2  3  2  0  0  0  0
  3  4  1  0  0  0  0
  4  5  1  0  0  0  0
  4 32  1  0  0  0  0
  5  6  2  0  0  0  0
  5  7  1  0  0  0  0
  7 16  1  0  0  0  0
  7  8  2  0  0  0  0
  8  9  1  0  0  0  0
  9 15  1  0  0  0  0
  9 10  1  0  0  0  0
 10 11  1  0  0  0  0
 11 12  1  0  0  0  0
 12 13  1  0  0  0  0
 13 20  1  0  0  0  0
 13 14  2  0  0  0  0
 14 15  1  0  0  0  0
 14 17  1  0  0  0  0
 15 16  2  0  0  0  0
 17 18  2  0  0  0  0
 18 19  1  0  0  0  0
 19 20  2  0  0  0  0
 19 21  1  0  0  0  0
 21 25  1  0  0  0  0
 21 22  2  0  0  0  0
 22 23  1  0  0  0  0
 23 24  1  0  0  0  0
 23 26  1  0  0  0  0
 24 25  2  0  0  0  0
 26 27  1  0  0  0  0
 26 28  1  0  0  0  0
 26 29  1  0  0  0  0
 29 30  2  0  0  0  0
 29 31  1  0  0  0  0
 32 33  1  0  0  0  0
 32 34  1  0  0  0  0
M  END
$$$$
PI-103
 OpenBabel04082404382D

 38 43  0  0  0  0  0  0  0  0999 V2000
    1.7619   -3.5414    0.0000 C   0  0  0  0  0  0  0  0  0  0  0  0
    2.1687   -4.4550    0.0000 C   0  0  0  0  0  0  0  0  0  0  0  0
    3.1632   -4.5595    0.0000 O   0  0  0  0  0  0  0  0  0  0  0  0
    3.7510   -3.7505    0.0000 C   0  0  0  0  0  0  0  0  0  0  0  0
    3.3442   -2.8370    0.0000 C   0  0  0  0  0  0  0  0  0  0  0  0
    2.3497   -2.7324    0.0000 N   0  0  0  0  0  0  0  0  0  0  0  0
    1.9430   -1.8189    0.0000 C   0  0  0  0  0  0  0  0  0  0  0  0
    0.9484   -1.7143    0.0000 N   0  0  0  0  0  0  0  0  0  0  0  0
    0.5417   -0.8008    0.0000 C   0  0  0  0  0  0  0  0  0  0  0  0
    1.1295    0.0082    0.0000 N   0  0  0  0  0  0  0  0  0  0  0  0
    2.1240   -0.0963    0.0000 C   0  0  0  0  0  0  0  0  0  0  0  0
    2.5308   -1.0099    0.0000 C   0  0  0  0  0  0  0  0  0  0  0  0
    3.5253   -0.9053    0.0000 O   0  0  0  0  0  0  0  0  0  0  0  0
    3.7332    0.0728    0.0000 C   0  0  0  0  0  0  0  0  0  0  0  0
    2.8672    0.5728    0.0000 C   0  0  0  0  0  0  0  0  0  0  0  0
    2.8672    1.5728    0.0000 C   0  0  0  0  0  0  0  0  0  0  0  0
    3.7332    2.0728    0.0000 C   0  0  0  0  0  0  0  0  0  0  0  0
    4.5992    1.5728    0.0000 C   0  0  0  0  0  0  0  0  0  0  0  0
    4.5992    0.5728    0.0000 N   0  0  0  0  0  0  0  0  0  0  0  0
   -2.5981    0.5000    0.0000 C   0  0  0  0  0  0  0  0  0  0  0  0
   -1.7321   -0.0000    0.0000 C   0  0  0  0  0  0  0  0  0  0  0  0
   -1.7321   -1.0000    0.0000 C   0  0  0  0  0  0  0  0  0  0  0  0
   -2.5981   -1.5000    0.0000 C   0  0  0  0  0  0  0  0  0  0  0  0
   -3.4641   -1.0000    0.0000 C   0  0  0  0  0  0  0  0  0  0  0  0
   -3.4641   -0.0000    0.0000 C   0  0  0  0  0  0  0  0  0  0  0  0
   -0.8660   -1.5000    0.0000 O   0  0  0  0  0  0  0  0  0  0  0  0
    0.0000   -1.0000    0.0000 C   0  0  0  0  0  0  0  0  0  0  0  0
    0.8660   -1.5000    0.0000 C   0  0  0  0  0  0  0  0  0  0  0  0
    1.7321   -1.0000    0.0000 C   0  0  0  0  0  0  0  0  0  0  0  0
    1.7321   -0.0000    0.0000 C   0  0  0  0  0  0  0  0  0  0  0  0
    0.8660    0.5000    0.0000 C   0  0  0  0  0  0  0  0  0  0  0  0
    0.0000   -0.0000    0.0000 C   0  0  0  0  0  0  0  0  0  0  0  0
    2.5981    0.5000    0.0000 N   0  0  0  0  0  0  0  0  0  0  0  0
    0.8660   -2.5000    0.0000 N   0  0  0  0  0  0  0  0  0  0  0  0
   -0.0475   -2.9067    0.0000 C   0  0  0  0  0  0  0  0  0  0  0  0
   -0.1520   -3.9013    0.0000 O   0  0  0  0  0  0  0  0  0  0  0  0
   -0.8565   -2.3190    0.0000 C   0  0  0  0  0  0  0  0  0  0  0  0
   -1.7701   -2.7257    0.0000 N   0  0  0  0  0  0  0  0  0  0  0  0
  1  6  1  0  0  0  0
  1  2  1  0  0  0  0
  2  3  1  0  0  0  0
  3  4  1  0  0  0  0
  4  5  1  0  0  0  0
  5  6  1  0  0  0  0
  6  7  1  0  0  0  0
  7 12  1  0  0  0  0
  7  8  2  0  0  0  0
  8  9  1  0  0  0  0
  9 10  2  0  0  0  0
  9 20  1  0  0  0  0
 10 11  1  0  0  0  0
 11 15  1  0  0  0  0
 11 12  2  0  0  0  0
 12 13  1  0  0  0  0
 13 14  1  0  0  0  0
 14 19  1  0  0  0  0
 14 15  2  0  0  0  0
 15 16  1  0  0  0  0
 16 17  2  0  0  0  0
 17 18  1  0  0  0  0
 18 19  2  0  0  0  0
 20 25  1  0  0  0  0
 20 21  2  0  0  0  0
 21 22  1  0  0  0  0
 22 23  2  0  0  0  0
 22 26  1  0  0  0  0
 23 24  1  0  0  0  0
 24 25  2  0  0  0  0
 26 27  1  0  0  0  0
 27 32  1  0  0  0  0
 27 28  2  0  0  0  0
 28 29  1  0  0  0  0
 28 34  1  0  0  0  0
 29 30  2  0  0  0  0
 30 31  1  0  0  0  0
 30 33  1  0  0  0  0
 31 32  2  0  0  0  0
 34 35  1  0  0  0  0
 35 36  2  0  0  0  0
 35 37  1  0  0  0  0
 37 38  1  0  0  0  0
M  END
$$$$
Bimiralisib
 OpenBabel04082404382D

 29 32  0  0  0  0  0  0  0  0999 V2000
   -2.5981   -4.5000    0.0000 C   0  0  0  0  0  0  0  0  0  0  0  0
   -3.4641   -5.0000    0.0000 C   0  0  0  0  0  0  0  0  0  0  0  0
   -4.3301   -4.5000    0.0000 O   0  0  0  0  0  0  0  0  0  0  0  0
   -4.3301   -3.5000    0.0000 C   0  0  0  0  0  0  0  0  0  0  0  0
   -3.4641   -3.0000    0.0000 C   0  0  0  0  0  0  0  0  0  0  0  0
   -2.5981   -3.5000    0.0000 N   0  0  0  0  0  0  0  0  0  0  0  0
   -1.7321   -3.0000    0.0000 C   0  0  0  0  0  0  0  0  0  0  0  0
   -1.7321   -2.0000    0.0000 N   0  0  0  0  0  0  0  0  0  0  0  0
   -0.8660   -1.5000    0.0000 C   0  0  0  0  0  0  0  0  0  0  0  0
    0.0000   -2.0000    0.0000 N   0  0  0  0  0  0  0  0  0  0  0  0
    0.0000   -3.0000    0.0000 C   0  0  0  0  0  0  0  0  0  0  0  0
   -0.8660   -3.5000    0.0000 N   0  0  0  0  0  0  0  0  0  0  0  0
    0.8660   -3.5000    0.0000 C   0  0  0  0  0  0  0  0  0  0  0  0
    1.7321   -3.0000    0.0000 C   0  0  0  0  0  0  0  0  0  0  0  0
    2.5981   -3.5000    0.0000 N   0  0  0  0  0  0  0  0  0  0  0  0
    2.5981   -4.5000    0.0000 C   0  0  0  0  0  0  0  0  0  0  0  0
    1.7321   -5.0000    0.0000 C   0  0  0  0  0  0  0  0  0  0  0  0
    0.8660   -4.5000    0.0000 C   0  0  0  0  0  0  0  0  0  0  0  0
    0.0000   -5.0000    0.0000 C   0  0  0  0  0  0  0  0  0  0  0  0
   -0.5000   -5.8660    0.0000 F   0  0  0  0  0  0  0  0  0  0  0  0
    0.5000   -5.8660    0.0000 F   0  0  0  0  0  0  0  0  0  0  0  0
   -0.8660   -4.5000    0.0000 F   0  0  0  0  0  0  0  0  0  0  0  0
    3.4641   -5.0000    0.0000 N   0  0  0  0  0  0  0  0  0  0  0  0
   -0.8660   -0.5000    0.0000 N   0  0  0  0  0  0  0  0  0  0  0  0
   -1.7321   -0.0000    0.0000 C   0  0  0  0  0  0  0  0  0  0  0  0
   -1.7321    1.0000    0.0000 C   0  0  0  0  0  0  0  0  0  0  0  0
   -0.8660    1.5000    0.0000 O   0  0  0  0  0  0  0  0  0  0  0  0
   -0.0000    1.0000    0.0000 C   0  0  0  0  0  0  0  0  0  0  0  0
   -0.0000   -0.0000    0.0000 C   0  0  0  0  0  0  0  0  0  0  0  0
  1  6  1  0  0  0  0
  1  2  1  0  0  0  0
  2  3  1  0  0  0  0
  3  4  1  0  0  0  0
  4  5  1  0  0  0  0
  5  6  1  0  0  0  0
  6  7  1  0  0  0  0
  7 12  1  0  0  0  0
  7  8  2  0  0  0  0
  8  9  1  0  0  0  0
  9 10  2  0  0  0  0
  9 24  1  0  0  0  0
 10 11  1  0  0  0  0
 11 12  2  0  0  0  0
 11 13  1  0  0  0  0
 13 18  1  0  0  0  0
 13 14  2  0  0  0  0
 14 15  1  0  0  0  0
 15 16  2  0  0  0  0
 16 17  1  0  0  0  0
 16 23  1  0  0  0  0
 17 18  2  0  0  0  0
 18 19  1  0  0  0  0
 19 20  1  0  0  0  0
 19 21  1  0  0  0  0
 19 22  1  0  0  0  0
 24 29  1  0  0  0  0
 24 25  1  0  0  0  0
 25 26  1  0  0  0  0
 26 27  1  0  0  0  0
 27 28  1  0  0  0  0
 28 29  1  0  0  0  0
M  END
$$$$
Apitolisib
 OpenBabel04082404382D

 35 39  0  0  1  0  0  0  0  0999 V2000
    1.2788   -3.4921    0.0000 C   0  0  0  0  0  0  0  0  0  0  0  0
    1.5878   -2.5411    0.0000 C   0  0  0  0  0  0  0  0  0  0  0  0
    1.0000   -1.7321    0.0000 C   0  0  0  0  0  0  0  0  0  0  0  0
    1.5878   -0.9230    0.0000 S   0  0  0  0  0  0  0  0  0  0  0  0
    2.5388   -1.2321    0.0000 C   0  0  0  0  0  0  0  0  0  0  0  0
    2.5388   -2.2321    0.0000 C   0  0  0  0  0  0  0  0  0  0  0  0
    3.4049   -2.7321    0.0000 N   0  0  0  0  0  0  0  0  0  0  0  0
    4.2709   -2.2321    0.0000 C   0  0  0  0  0  0  0  0  0  0  0  0
    4.2709   -1.2321    0.0000 N   0  0  0  0  0  0  0  0  0  0  0  0
    3.4049   -0.7321    0.0000 C   0  0  0  0  0  0  0  0  0  0  0  0
    3.4049    0.2679    0.0000 N   0  0  0  0  0  0  0  0  0  0  0  0
    2.5388    0.7679    0.0000 C   0  0  0  0  0  0  0  0  0  0  0  0
    2.5388    1.7679    0.0000 C   0  0  0  0  0  0  0  0  0  0  0  0
    3.4049    2.2679    0.0000 O   0  0  0  0  0  0  0  0  0  0  0  0
    4.2709    1.7679    0.0000 C   0  0  0  0  0  0  0  0  0  0  0  0
    4.2709    0.7679    0.0000 C   0  0  0  0  0  0  0  0  0  0  0  0
    5.1369   -2.7321    0.0000 C   0  0  0  0  0  0  0  0  0  0  0  0
    6.0029   -2.2321    0.0000 C   0  0  0  0  0  0  0  0  0  0  0  0
    6.8690   -2.7321    0.0000 N   0  0  0  0  0  0  0  0  0  0  0  0
    6.8690   -3.7321    0.0000 C   0  0  0  0  0  0  0  0  0  0  0  0
    6.0029   -4.2321    0.0000 N   0  0  0  0  0  0  0  0  0  0  0  0
    5.1369   -3.7321    0.0000 C   0  0  0  0  0  0  0  0  0  0  0  0
    7.7350   -4.2321    0.0000 N   0  0  0  0  0  0  0  0  0  0  0  0
    0.0000   -1.7321    0.0000 C   0  0  0  0  0  0  0  0  0  0  0  0
   -0.5000   -0.8660    0.0000 N   0  0  0  0  0  0  0  0  0  0  0  0
   -1.5000   -0.8660    0.0000 C   0  0  0  0  0  0  0  0  0  0  0  0
   -2.0000   -0.0000    0.0000 C   0  0  0  0  0  0  0  0  0  0  0  0
   -1.5000    0.8660    0.0000 N   0  0  0  0  0  0  0  0  0  0  0  0
   -0.5000    0.8660    0.0000 C   0  0  0  0  0  0  0  0  0  0  0  0
    0.0000    0.0000    0.0000 C   0  0  0  0  0  0  0  0  0  0  0  0
   -2.0000    1.7321    0.0000 C   0  0  0  0  0  0  0  0  0  0  0  0
   -1.5000    2.5981    0.0000 O   0  0  0  0  0  0  0  0  0  0  0  0
   -3.0000    1.7321    0.0000 C   0  0  3  0  0  0  0  0  0  0  0  0
   -3.5000    2.5981    0.0000 C   0  0  0  0  0  0  0  0  0  0  0  0
   -3.5000    0.8660    0.0000 O   0  0  0  0  0  0  0  0  0  0  0  0
  1  2  1  0  0  0  0
  2  6  1  0  0  0  0
  2  3  2  0  0  0  0
  3  4  1  0  0  0  0
  3 24  1  0  0  0  0
  4  5  1  0  0  0  0
  5 10  1  0  0  0  0
  5  6  2  0  0  0  0
  6  7  1  0  0  0  0
  7  8  2  0  0  0  0
  8  9  1  0  0  0  0
  8 17  1  0  0  0  0
  9 10  2  0  0  0  0
 10 11  1  0  0  0  0
 11 16  1  0  0  0  0
 11 12  1  0  0  0  0
 12 13  1  0  0  0  0
 13 14  1  0  0  0  0
 14 15  1  0  0  0  0
 15 16  1  0  0  0  0
 17 22  1  0  0  0  0
 17 18  2  0  0  0  0
 18 19  1  0  0  0  0
 19 20  2  0  0  0  0
 20 21  1  0  0  0  0
 20 23  1  0  0  0  0
 21 22  2  0  0  0  0
 24 25  1  0  0  0  0
 25 30  1  0  0  0  0
 25 26  1  0  0  0  0
 26 27  1  0  0  0  0
 27 28  1  0  0  0  0
 28 29  1  0  0  0  0
 28 31  1  0  0  0  0
 29 30  1  0  0  0  0
 31 32  2  0  0  0  0
 31 33  1  0  0  0  0
 33 34  1  0  0  0  0
 33 35  1  0  0  0  0
M  END
$$$$
Gedatolisib
 OpenBabel04082404382D

 45 50  0  0  0  0  0  0  0  0999 V2000
    8.6603   -0.0000    0.0000 C   0  0  0  0  0  0  0  0  0  0  0  0
    9.5263    0.5000    0.0000 N   0  0  0  0  0  0  0  0  0  0  0  0
   10.3923   -0.0000    0.0000 C   0  0  0  0  0  0  0  0  0  0  0  0
    9.5263    1.5000    0.0000 C   0  0  0  0  0  0  0  0  0  0  0  0
    8.6603    2.0000    0.0000 C   0  0  0  0  0  0  0  0  0  0  0  0
    8.6603    3.0000    0.0000 C   0  0  0  0  0  0  0  0  0  0  0  0
    9.5263    3.5000    0.0000 N   0  0  0  0  0  0  0  0  0  0  0  0
   10.3923    3.0000    0.0000 C   0  0  0  0  0  0  0  0  0  0  0  0
   10.3923    2.0000    0.0000 C   0  0  0  0  0  0  0  0  0  0  0  0
    9.5263    4.5000    0.0000 C   0  0  0  0  0  0  0  0  0  0  0  0
   10.3923    5.0000    0.0000 O   0  0  0  0  0  0  0  0  0  0  0  0
    8.6603    5.0000    0.0000 C   0  0  0  0  0  0  0  0  0  0  0  0
    7.7942    4.5000    0.0000 C   0  0  0  0  0  0  0  0  0  0  0  0
    6.9282    5.0000    0.0000 C   0  0  0  0  0  0  0  0  0  0  0  0
    6.9282    6.0000    0.0000 C   0  0  0  0  0  0  0  0  0  0  0  0
    7.7942    6.5000    0.0000 C   0  0  0  0  0  0  0  0  0  0  0  0
    8.6603    6.0000    0.0000 C   0  0  0  0  0  0  0  0  0  0  0  0
    6.0622    6.5000    0.0000 N   0  0  0  0  0  0  0  0  0  0  0  0
    5.1962    6.0000    0.0000 C   0  0  0  0  0  0  0  0  0  0  0  0
    4.3301    6.5000    0.0000 O   0  0  0  0  0  0  0  0  0  0  0  0
    5.1962    5.0000    0.0000 N   0  0  0  0  0  0  0  0  0  0  0  0
    4.3301    4.5000    0.0000 C   0  0  0  0  0  0  0  0  0  0  0  0
    4.3301    3.5000    0.0000 C   0  0  0  0  0  0  0  0  0  0  0  0
    3.4641    3.0000    0.0000 C   0  0  0  0  0  0  0  0  0  0  0  0
    2.5981    3.5000    0.0000 C   0  0  0  0  0  0  0  0  0  0  0  0
    2.5981    4.5000    0.0000 C   0  0  0  0  0  0  0  0  0  0  0  0
    3.4641    5.0000    0.0000 C   0  0  0  0  0  0  0  0  0  0  0  0
    1.7321    3.0000    0.0000 C   0  0  0  0  0  0  0  0  0  0  0  0
    1.7321    2.0000    0.0000 N   0  0  0  0  0  0  0  0  0  0  0  0
    0.8660    1.5000    0.0000 C   0  0  0  0  0  0  0  0  0  0  0  0
    0.0000    2.0000    0.0000 N   0  0  0  0  0  0  0  0  0  0  0  0
    0.0000    3.0000    0.0000 C   0  0  0  0  0  0  0  0  0  0  0  0
    0.8660    3.5000    0.0000 N   0  0  0  0  0  0  0  0  0  0  0  0
   -0.8660    3.5000    0.0000 N   0  0  0  0  0  0  0  0  0  0  0  0
   -1.7321    3.0000    0.0000 C   0  0  0  0  0  0  0  0  0  0  0  0
   -2.5981    3.5000    0.0000 C   0  0  0  0  0  0  0  0  0  0  0  0
   -2.5981    4.5000    0.0000 O   0  0  0  0  0  0  0  0  0  0  0  0
   -1.7321    5.0000    0.0000 C   0  0  0  0  0  0  0  0  0  0  0  0
   -0.8660    4.5000    0.0000 C   0  0  0  0  0  0  0  0  0  0  0  0
    0.8660    0.5000    0.0000 N   0  0  0  0  0  0  0  0  0  0  0  0
    1.7321   -0.0000    0.0000 C   0  0  0  0  0  0  0  0  0  0  0  0
    1.7321   -1.0000    0.0000 C   0  0  0  0  0  0  0  0  0  0  0  0
    0.8660   -1.5000    0.0000 O   0  0  0  0  0  0  0  0  0  0  0  0
    0.0000   -1.0000    0.0000 C   0  0  0  0  0  0  0  0  0  0  0  0
    0.0000    0.0000    0.0000 C   0  0  0  0  0  0  0  0  0  0  0  0
  1  2  1  0  0  0  0
  2  3  1  0  0  0  0
  2  4  1  0  0  0  0
  4  9  1  0  0  0  0
  4  5  1  0  0  0  0
  5  6  1  0  0  0  0
  6  7  1  0  0  0  0
  7  8  1  0  0  0  0
  7 10  1  0  0  0  0
  8  9  1  0  0  0  0
 10 11  2  0  0  0  0
 10 12  1  0  0  0  0
 12 17  1  0  0  0  0
 12 13  2  0  0  0  0
 13 14  1  0  0  0  0
 14 15  2  0  0  0  0
 15 16  1  0  0  0  0
 15 18  1  0  0  0  0
 16 17  2  0  0  0  0
 18 19  1  0  0  0  0
 19 20  2  0  0  0  0
 19 21  1  0  0  0  0
 21 22  1  0  0  0  0
 22 27  1  0  0  0  0
 22 23  2  0  0  0  0
 23 24  1  0  0  0  0
 24 25  2  0  0  0  0
 25 26  1  0  0  0  0
 25 28  1  0  0  0  0
 26 27  2  0  0  0  0
 28 33  1  0  0  0  0
 28 29  2  0  0  0  0
 29 30  1  0  0  0  0
 30 31  2  0  0  0  0
 30 40  1  0  0  0  0
 31 32  1  0  0  0  0
 32 33  2  0  0  0  0
 32 34  1  0  0  0  0
 34 39  1  0  0  0  0
 34 35  1  0  0  0  0
 35 36  1  0  0  0  0
 36 37  1  0  0  0  0
 37 38  1  0  0  0  0
 38 39  1  0  0  0  0
 40 45  1  0  0  0  0
 40 41  1  0  0  0  0
 41 42  1  0  0  0  0
 42 43  1  0  0  0  0
 43 44  1  0  0  0  0
 44 45  1  0  0  0  0
M  END
$$$$
Omipalisib
 OpenBabel04082404382D

 36 40  0  0  0  0  0  0  0  0999 V2000
    0.1340   -2.5000    0.0000 C   0  0  0  0  0  0  0  0  0  0  0  0
    1.0000   -3.0000    0.0000 O   0  0  0  0  0  0  0  0  0  0  0  0
    1.8660   -2.5000    0.0000 C   0  0  0  0  0  0  0  0  0  0  0  0
    1.8660   -1.5000    0.0000 C   0  0  0  0  0  0  0  0  0  0  0  0
    2.7321   -1.0000    0.0000 C   0  0  0  0  0  0  0  0  0  0  0  0
    3.5981   -1.5000    0.0000 C   0  0  0  0  0  0  0  0  0  0  0  0
    3.5981   -2.5000    0.0000 C   0  0  0  0  0  0  0  0  0  0  0  0
    2.7321   -3.0000    0.0000 N   0  0  0  0  0  0  0  0  0  0  0  0
    4.4641   -1.0000    0.0000 C   0  0  0  0  0  0  0  0  0  0  0  0
    4.4641   -0.0000    0.0000 C   0  0  0  0  0  0  0  0  0  0  0  0
    5.3301    0.5000    0.0000 C   0  0  0  0  0  0  0  0  0  0  0  0
    5.3301    1.5000    0.0000 C   0  0  0  0  0  0  0  0  0  0  0  0
    6.1962    2.0000    0.0000 C   0  0  0  0  0  0  0  0  0  0  0  0
    7.0622    1.5000    0.0000 C   0  0  0  0  0  0  0  0  0  0  0  0
    7.0622    0.5000    0.0000 N   0  0  0  0  0  0  0  0  0  0  0  0
    6.1962   -0.0000    0.0000 C   0  0  0  0  0  0  0  0  0  0  0  0
    6.1962   -1.0000    0.0000 C   0  0  0  0  0  0  0  0  0  0  0  0
    5.3301   -1.5000    0.0000 C   0  0  0  0  0  0  0  0  0  0  0  0
    4.4641    2.0000    0.0000 C   0  0  0  0  0  0  0  0  0  0  0  0
    3.5981    1.5000    0.0000 C   0  0  0  0  0  0  0  0  0  0  0  0
    2.7321    2.0000    0.0000 N   0  0  0  0  0  0  0  0  0  0  0  0
    2.7321    3.0000    0.0000 N   0  0  0  0  0  0  0  0  0  0  0  0
    3.5981    3.5000    0.0000 C   0  0  0  0  0  0  0  0  0  0  0  0
    4.4641    3.0000    0.0000 C   0  0  0  0  0  0  0  0  0  0  0  0
    1.0000   -1.0000    0.0000 N   0  0  0  0  0  0  0  0  0  0  0  0
    1.0000   -0.0000    0.0000 S   0  0  0  0  0  0  0  0  0  0  0  0
    2.0000   -0.0000    0.0000 O   0  0  0  0  0  0  0  0  0  0  0  0
    1.0000    1.0000    0.0000 O   0  0  0  0  0  0  0  0  0  0  0  0
    0.0000   -0.0000    0.0000 C   0  0  0  0  0  0  0  0  0  0  0  0
   -0.5000   -0.8660    0.0000 C   0  0  0  0  0  0  0  0  0  0  0  0
   -1.5000   -0.8660    0.0000 C   0  0  0  0  0  0  0  0  0  0  0  0
   -2.0000    0.0000    0.0000 C   0  0  0  0  0  0  0  0  0  0  0  0
   -1.5000    0.8660    0.0000 C   0  0  0  0  0  0  0  0  0  0  0  0
   -0.5000    0.8660    0.0000 C   0  0  0  0  0  0  0  0  0  0  0  0
   -3.0000    0.0000    0.0000 F   0  0  0  0  0  0  0  0  0  0  0  0
   -0.0000   -1.7321    0.0000 F   0  0  0  0  0  0  0  0  0  0  0  0
  1  2  1  0  0  0  0
  2  3  1  0  0  0  0
  3  8  1  0  0  0  0
  3  4  2  0  0  0  0
  4  5  1  0  0  0  0
  4 25  1  0  0  0  0
  5  6  2  0  0  0  0
  6  7  1  0  0  0  0
  6  9  1  0  0  0  0
  7  8  2  0  0  0  0
  9 18  1  0  0  0  0
  9 10  2  0  0  0  0
 10 11  1  0  0  0  0
 11 16  1  0  0  0  0
 11 12  2  0  0  0  0
 12 13  1  0  0  0  0
 12 19  1  0  0  0  0
 13 14  2  0  0  0  0
 14 15  1  0  0  0  0
 15 16  2  0  0  0  0
 16 17  1  0  0  0  0
 17 18  2  0  0  0  0
 19 24  1  0  0  0  0
 19 20  2  0  0  0  0
 20 21  1  0  0  0  0
 21 22  2  0  0  0  0
 22 23  1  0  0  0  0
 23 24  2  0  0  0  0
 25 26  1  0  0  0  0
 26 27  2  0  0  0  0
 26 28  2  0  0  0  0
 26 29  1  0  0  0  0
 29 34  1  0  0  0  0
 29 30  2  0  0  0  0
 30 31  1  0  0  0  0
 30 36  1  0  0  0  0
 31 32  2  0  0  0  0
 32 33  1  0  0  0  0
 32 35  1  0  0  0  0
 33 34  2  0  0  0  0
M  END
$$$$
Dactolisib
 OpenBabel04082404382D

 36 41  0  0  0  0  0  0  0  0999 V2000
    1.6536   -5.4289    0.0000 C   0  0  0  0  0  0  0  0  0  0  0  0
    1.8615   -4.4507    0.0000 C   0  0  0  0  0  0  0  0  0  0  0  0
    2.6047   -5.1199    0.0000 C   0  0  0  0  0  0  0  0  0  0  0  0
    0.8834   -4.2428    0.0000 C   0  0  0  0  0  0  0  0  0  0  0  0
   -0.0948   -4.0349    0.0000 N   0  0  0  0  0  0  0  0  0  0  0  0
    2.5306   -3.7076    0.0000 C   0  0  0  0  0  0  0  0  0  0  0  0
    2.2216   -2.7565    0.0000 C   0  0  0  0  0  0  0  0  0  0  0  0
    2.8908   -2.0134    0.0000 C   0  0  0  0  0  0  0  0  0  0  0  0
    3.8689   -2.2213    0.0000 C   0  0  0  0  0  0  0  0  0  0  0  0
    4.1779   -3.1723    0.0000 C   0  0  0  0  0  0  0  0  0  0  0  0
    3.5088   -3.9155    0.0000 C   0  0  0  0  0  0  0  0  0  0  0  0
    4.5380   -1.4781    0.0000 N   0  0  0  0  0  0  0  0  0  0  0  0
    4.3301   -0.5000    0.0000 C   0  0  0  0  0  0  0  0  0  0  0  0
    3.4641   -0.0000    0.0000 C   0  0  0  0  0  0  0  0  0  0  0  0
    2.5981   -0.5000    0.0000 C   0  0  0  0  0  0  0  0  0  0  0  0
    1.7321    0.0000    0.0000 C   0  0  0  0  0  0  0  0  0  0  0  0
    1.7321    1.0000    0.0000 C   0  0  0  0  0  0  0  0  0  0  0  0
    2.5981    1.5000    0.0000 C   0  0  0  0  0  0  0  0  0  0  0  0
    3.4641    1.0000    0.0000 C   0  0  0  0  0  0  0  0  0  0  0  0
    4.3301    1.5000    0.0000 N   0  0  0  0  0  0  0  0  0  0  0  0
    5.1962    1.0000    0.0000 C   0  0  0  0  0  0  0  0  0  0  0  0
    5.1962   -0.0000    0.0000 C   0  0  0  0  0  0  0  0  0  0  0  0
    5.9393   -0.6691    0.0000 N   0  0  0  0  0  0  0  0  0  0  0  0
    5.5326   -1.5827    0.0000 C   0  0  0  0  0  0  0  0  0  0  0  0
    6.0326   -2.4487    0.0000 O   0  0  0  0  0  0  0  0  0  0  0  0
    6.9174   -0.4612    0.0000 C   0  0  0  0  0  0  0  0  0  0  0  0
    0.8660   -0.5000    0.0000 C   0  0  0  0  0  0  0  0  0  0  0  0
    0.8660   -1.5000    0.0000 C   0  0  0  0  0  0  0  0  0  0  0  0
    0.0000   -2.0000    0.0000 C   0  0  0  0  0  0  0  0  0  0  0  0
    0.0000   -3.0000    0.0000 C   0  0  0  0  0  0  0  0  0  0  0  0
   -0.8660   -3.5000    0.0000 C   0  0  0  0  0  0  0  0  0  0  0  0
   -1.7321   -3.0000    0.0000 C   0  0  0  0  0  0  0  0  0  0  0  0
   -1.7321   -2.0000    0.0000 C   0  0  0  0  0  0  0  0  0  0  0  0
   -0.8660   -1.5000    0.0000 C   0  0  0  0  0  0  0  0  0  0  0  0
   -0.8660   -0.5000    0.0000 N   0  0  0  0  0  0  0  0  0  0  0  0
    0.0000    0.0000    0.0000 C   0  0  0  0  0  0  0  0  0  0  0  0
  1  2  1  0  0  0  0
  2  3  1  0  0  0  0
  2  4  1  0  0  0  0
  2  6  1  0  0  0  0
  4  5  3  0  0  0  0
  6 11  1  0  0  0  0
  6  7  2  0  0  0  0
  7  8  1  0  0  0  0
  8  9  2  0  0  0  0
  9 10  1  0  0  0  0
  9 12  1  0  0  0  0
 10 11  2  0  0  0  0
 12 24  1  0  0  0  0
 12 13  1  0  0  0  0
 13 22  1  0  0  0  0
 13 14  2  0  0  0  0
 14 19  1  0  0  0  0
 14 15  1  0  0  0  0
 15 16  2  0  0  0  0
 16 17  1  0  0  0  0
 16 27  1  0  0  0  0
 17 18  2  0  0  0  0
 18 19  1  0  0  0  0
 19 20  2  0  0  0  0
 20 21  1  0  0  0  0
 21 22  2  0  0  0  0
 22 23  1  0  0  0  0
 23 24  1  0  0  0  0
 23 26  1  0  0  0  0
 24 25  2  0  0  0  0
 27 36  1  0  0  0  0
 27 28  2  0  0  0  0
 28 29  1  0  0  0  0
 29 34  1  0  0  0  0
 29 30  2  0  0  0  0
 30 31  1  0  0  0  0
 31 32  2  0  0  0  0
 32 33  1  0  0  0  0
 33 34  2  0  0  0  0
 34 35  1  0  0  0  0
 35 36  2  0  0  0  0
M  END
$$$$
Inavolisib
 OpenBabel04082404382D

 29 32  0  0  1  0  0  0  0  0999 V2000
   -8.6664    2.0652    0.0000 C   0  0  0  0  0  0  0  0  0  0  0  0
   -7.7930    1.5782    0.0000 C   0  0  3  0  0  0  0  0  0  0  0  0
   -7.7781    0.5783    0.0000 C   0  0  0  0  0  0  0  0  0  0  0  0
   -8.6365    0.0654    0.0000 O   0  0  0  0  0  0  0  0  0  0  0  0
   -6.9046    0.0913    0.0000 N   0  0  0  0  0  0  0  0  0  0  0  0
   -6.9346    2.0911    0.0000 N   0  0  0  0  0  0  0  0  0  0  0  0
   -6.0612    1.6041    0.0000 C   0  0  0  0  0  0  0  0  0  0  0  0
   -6.0462    0.6042    0.0000 C   0  0  0  0  0  0  0  0  0  0  0  0
   -5.1728    0.1172    0.0000 C   0  0  0  0  0  0  0  0  0  0  0  0
   -4.3143    0.6301    0.0000 C   0  0  0  0  0  0  0  0  0  0  0  0
   -4.3293    1.6300    0.0000 C   0  0  0  0  0  0  0  0  0  0  0  0
   -5.2027    2.1170    0.0000 C   0  0  0  0  0  0  0  0  0  0  0  0
   -3.3781    0.2788    0.0000 C   0  0  0  0  0  0  0  0  0  0  0  0
   -2.5691    0.8666    0.0000 N   0  0  0  0  0  0  0  0  0  0  0  0
   -1.7601    0.2788    0.0000 C   0  0  0  0  0  0  0  0  0  0  0  0
   -2.0691   -0.6723    0.0000 C   0  0  0  0  0  0  0  0  0  0  0  0
   -3.0691   -0.6723    0.0000 N   0  0  0  0  0  0  0  0  0  0  0  0
   -3.6200   -1.5069    0.0000 C   0  0  0  0  0  0  0  0  0  0  0  0
   -4.6160   -1.5965    0.0000 C   0  0  0  0  0  0  0  0  0  0  0  0
   -5.3070   -0.8737    0.0000 O   0  0  0  0  0  0  0  0  0  0  0  0
   -0.8090    0.5878    0.0000 N   0  0  0  0  0  0  0  0  0  0  0  0
   -0.5000    1.5388    0.0000 C   0  0  3  0  0  0  0  0  0  0  0  0
    0.5000    1.5388    0.0000 C   0  0  0  0  0  0  0  0  0  0  0  0
    0.8090    0.5878    0.0000 O   0  0  0  0  0  0  0  0  0  0  0  0
    0.0000   -0.0000    0.0000 C   0  0  0  0  0  0  0  0  0  0  0  0
   -0.0000   -1.0000    0.0000 O   0  0  0  0  0  0  0  0  0  0  0  0
   -1.0878    2.3479    0.0000 C   0  0  0  0  0  0  0  0  0  0  0  0
   -0.6810    3.2614    0.0000 F   0  0  0  0  0  0  0  0  0  0  0  0
   -2.0823    2.2433    0.0000 F   0  0  0  0  0  0  0  0  0  0  0  0
  1  2  1  0  0  0  0
  2  3  1  0  0  0  0
  2  6  1  0  0  0  0
  3  4  2  0  0  0  0
  3  5  1  0  0  0  0
  6  7  1  0  0  0  0
  7 12  1  0  0  0  0
  7  8  2  0  0  0  0
  8  9  1  0  0  0  0
  9 20  1  0  0  0  0
  9 10  2  0  0  0  0
 10 11  1  0  0  0  0
 10 13  1  0  0  0  0
 11 12  2  0  0  0  0
 13 17  1  0  0  0  0
 13 14  2  0  0  0  0
 14 15  1  0  0  0  0
 15 16  2  0  0  0  0
 15 21  1  0  0  0  0
 16 17  1  0  0  0  0
 17 18  1  0  0  0  0
 18 19  1  0  0  0  0
 19 20  1  0  0  0  0
 21 25  1  0  0  0  0
 21 22  1  0  0  0  0
 22 23  1  0  0  0  0
 22 27  1  0  0  0  0
 23 24  1  0  0  0  0
 24 25  1  0  0  0  0
 25 26  2  0  0  0  0
 27 28  1  0  0  0  0
 27 29  1  0  0  0  0
M  END
$$$$
Samotolisib
 OpenBabel04082404382D

 30 33  0  0  1  0  0  0  0  0999 V2000
    2.2216   -2.7565    0.0000 C   0  0  0  0  0  0  0  0  0  0  0  0
    2.8908   -2.0134    0.0000 C   0  0  3  0  0  0  0  0  0  0  0  0
    3.8689   -2.2213    0.0000 C   0  0  0  0  0  0  0  0  0  0  0  0
    4.5380   -1.4781    0.0000 N   0  0  0  0  0  0  0  0  0  0  0  0
    4.3301   -0.5000    0.0000 C   0  0  0  0  0  0  0  0  0  0  0  0
    3.4641   -0.0000    0.0000 C   0  0  0  0  0  0  0  0  0  0  0  0
    2.5981   -0.5000    0.0000 C   0  0  0  0  0  0  0  0  0  0  0  0
    1.7321   -0.0000    0.0000 C   0  0  0  0  0  0  0  0  0  0  0  0
    1.7321    1.0000    0.0000 C   0  0  0  0  0  0  0  0  0  0  0  0
    2.5981    1.5000    0.0000 C   0  0  0  0  0  0  0  0  0  0  0  0
    3.4641    1.0000    0.0000 C   0  0  0  0  0  0  0  0  0  0  0  0
    4.3301    1.5000    0.0000 N   0  0  0  0  0  0  0  0  0  0  0  0
    5.1962    1.0000    0.0000 C   0  0  0  0  0  0  0  0  0  0  0  0
    5.1962   -0.0000    0.0000 C   0  0  0  0  0  0  0  0  0  0  0  0
    5.9393   -0.6691    0.0000 N   0  0  0  0  0  0  0  0  0  0  0  0
    5.5326   -1.5827    0.0000 C   0  0  0  0  0  0  0  0  0  0  0  0
    6.0326   -2.4487    0.0000 O   0  0  0  0  0  0  0  0  0  0  0  0
    6.9174   -0.4612    0.0000 C   0  0  0  0  0  0  0  0  0  0  0  0
    0.8660   -0.5000    0.0000 C   0  0  0  0  0  0  0  0  0  0  0  0
    0.8660   -1.5000    0.0000 C   0  0  0  0  0  0  0  0  0  0  0  0
    0.0000   -2.0000    0.0000 C   0  0  0  0  0  0  0  0  0  0  0  0
   -0.8660   -1.5000    0.0000 C   0  0  0  0  0  0  0  0  0  0  0  0
   -0.8660   -0.5000    0.0000 N   0  0  0  0  0  0  0  0  0  0  0  0
    0.0000    0.0000    0.0000 C   0  0  0  0  0  0  0  0  0  0  0  0
    0.0000   -3.0000    0.0000 C   0  0  0  0  0  0  0  0  0  0  0  0
    0.5000   -3.8660    0.0000 C   0  0  0  0  0  0  0  0  0  0  0  0
    1.0000   -3.0000    0.0000 C   0  0  0  0  0  0  0  0  0  0  0  0
   -0.8660   -3.5000    0.0000 O   0  0  0  0  0  0  0  0  0  0  0  0
    2.5817   -1.0623    0.0000 O   0  0  0  0  0  0  0  0  0  0  0  0
    1.6036   -0.8544    0.0000 C   0  0  0  0  0  0  0  0  0  0  0  0
  1  2  1  0  0  0  0
  2  3  1  0  0  0  0
  2 29  1  0  0  0  0
  3  4  1  0  0  0  0
  4 16  1  0  0  0  0
  4  5  1  0  0  0  0
  5 14  1  0  0  0  0
  5  6  2  0  0  0  0
  6 11  1  0  0  0  0
  6  7  1  0  0  0  0
  7  8  2  0  0  0  0
  8  9  1  0  0  0  0
  8 19  1  0  0  0  0
  9 10  2  0  0  0  0
 10 11  1  0  0  0  0
 11 12  2  0  0  0  0
 12 13  1  0  0  0  0
 13 14  2  0  0  0  0
 14 15  1  0  0  0  0
 15 16  1  0  0  0  0
 15 18  1  0  0  0  0
 16 17  2  0  0  0  0
 19 24  1  0  0  0  0
 19 20  2  0  0  0  0
 20 21  1  0  0  0  0
 21 22  2  0  0  0  0
 21 25  1  0  0  0  0
 22 23  1  0  0  0  0
 23 24  2  0  0  0  0
 25 26  1  0  0  0  0
 25 27  1  0  0  0  0
 25 28  1  0  0  0  0
 29 30  1  0  0  0  0
M  END
$$$$
Voxtalisib
 OpenBabel04082404382D

 20 22  0  0  0  0  0  0  0  0999 V2000
   -3.5116   -3.0933    0.0000 C   0  0  0  0  0  0  0  0  0  0  0  0
   -2.6456   -2.5933    0.0000 C   0  0  0  0  0  0  0  0  0  0  0  0
   -2.6456   -1.5933    0.0000 N   0  0  0  0  0  0  0  0  0  0  0  0
   -3.5116   -1.0933    0.0000 C   0  0  0  0  0  0  0  0  0  0  0  0
   -4.3776   -1.5933    0.0000 N   0  0  0  0  0  0  0  0  0  0  0  0
   -5.2437   -1.0933    0.0000 C   0  0  0  0  0  0  0  0  0  0  0  0
   -5.2437   -0.0933    0.0000 N   0  0  0  0  0  0  0  0  0  0  0  0
   -4.3776    0.4067    0.0000 C   0  0  0  0  0  0  0  0  0  0  0  0
   -3.5116   -0.0933    0.0000 C   0  0  0  0  0  0  0  0  0  0  0  0
   -2.6456    0.4067    0.0000 C   0  0  0  0  0  0  0  0  0  0  0  0
   -1.7796   -0.0933    0.0000 C   0  0  0  0  0  0  0  0  0  0  0  0
   -1.7796   -1.0933    0.0000 C   0  0  0  0  0  0  0  0  0  0  0  0
   -0.9135   -1.5933    0.0000 O   0  0  0  0  0  0  0  0  0  0  0  0
   -0.9135    0.4067    0.0000 C   0  0  0  0  0  0  0  0  0  0  0  0
   -0.8090    1.4013    0.0000 C   0  0  0  0  0  0  0  0  0  0  0  0
    0.1691    1.6092    0.0000 C   0  0  0  0  0  0  0  0  0  0  0  0
    0.6691    0.7431    0.0000 N   0  0  0  0  0  0  0  0  0  0  0  0
    0.0000   -0.0000    0.0000 N   0  0  0  0  0  0  0  0  0  0  0  0
   -4.3776    1.4067    0.0000 C   0  0  0  0  0  0  0  0  0  0  0  0
   -6.1097   -1.5933    0.0000 N   0  0  0  0  0  0  0  0  0  0  0  0
  1  2  1  0  0  0  0
  2  3  1  0  0  0  0
  3 12  1  0  0  0  0
  3  4  1  0  0  0  0
  4  9  1  0  0  0  0
  4  5  2  0  0  0  0
  5  6  1  0  0  0  0
  6  7  2  0  0  0  0
  6 20  1  0  0  0  0
  7  8  1  0  0  0  0
  8  9  2  0  0  0  0
  8 19  1  0  0  0  0
  9 10  1  0  0  0  0
 10 11  2  0  0  0  0
 11 12  1  0  0  0  0
 11 14  1  0  0  0  0
 12 13  2  0  0  0  0
 14 18  1  0  0  0  0
 14 15  2  0  0  0  0
 15 16  1  0  0  0  0
 16 17  2  0  0  0  0
 17 18  1  0  0  0  0
M  END
$$$$
PF-04691502
 OpenBabel04082404382D

 31 34  0  0  1  0  0  0  0  0999 V2000
   -0.8660    4.5000    0.0000 C   0  0  0  0  0  0  0  0  0  0  0  0
   -1.7321    4.0000    0.0000 C   0  0  0  0  0  0  0  0  0  0  0  0
   -1.7321    3.0000    0.0000 C   0  0  0  0  0  0  0  0  0  0  0  0
   -0.8660    2.5000    0.0000 C   0  0  0  0  0  0  0  0  0  0  0  0
   -0.8660    1.5000    0.0000 C   0  0  0  0  0  0  0  0  0  0  0  0
   -1.7321    1.0000    0.0000 C   0  0  0  0  0  0  0  0  0  0  0  0
   -1.7321   -0.0000    0.0000 O   0  0  0  0  0  0  0  0  0  0  0  0
   -2.5981    1.5000    0.0000 N   0  0  0  0  0  0  0  0  0  0  0  0
   -2.5981    2.5000    0.0000 C   0  0  0  0  0  0  0  0  0  0  0  0
   -3.4641    3.0000    0.0000 N   0  0  0  0  0  0  0  0  0  0  0  0
   -3.4641    4.0000    0.0000 C   0  0  0  0  0  0  0  0  0  0  0  0
   -2.5981    4.5000    0.0000 N   0  0  0  0  0  0  0  0  0  0  0  0
   -4.3301    4.5000    0.0000 N   0  0  0  0  0  0  0  0  0  0  0  0
   -3.4641    1.0000    0.0000 C   0  0  3  0  0  0  0  0  0  0  0  0
   -3.4641   -0.0000    0.0000 C   0  0  0  0  0  0  0  0  0  0  0  0
   -4.3301   -0.5000    0.0000 C   0  0  0  0  0  0  0  0  0  0  0  0
   -5.1962   -0.0000    0.0000 C   0  0  3  0  0  0  0  0  0  0  0  0
   -5.1962    1.0000    0.0000 C   0  0  0  0  0  0  0  0  0  0  0  0
   -4.3301    1.5000    0.0000 C   0  0  0  0  0  0  0  0  0  0  0  0
   -6.0622   -0.5000    0.0000 O   0  0  0  0  0  0  0  0  0  0  0  0
   -6.9282   -0.0000    0.0000 C   0  0  0  0  0  0  0  0  0  0  0  0
   -6.9282    1.0000    0.0000 C   0  0  0  0  0  0  0  0  0  0  0  0
   -7.7942    1.5000    0.0000 O   0  0  0  0  0  0  0  0  0  0  0  0
   -0.0000    1.0000    0.0000 C   0  0  0  0  0  0  0  0  0  0  0  0
    0.8660    1.5000    0.0000 C   0  0  0  0  0  0  0  0  0  0  0  0
    1.7321    1.0000    0.0000 N   0  0  0  0  0  0  0  0  0  0  0  0
    1.7321    0.0000    0.0000 C   0  0  0  0  0  0  0  0  0  0  0  0
    0.8660   -0.5000    0.0000 C   0  0  0  0  0  0  0  0  0  0  0  0
    0.0000   -0.0000    0.0000 C   0  0  0  0  0  0  0  0  0  0  0  0
    2.5981   -0.5000    0.0000 O   0  0  0  0  0  0  0  0  0  0  0  0
    2.5981   -1.5000    0.0000 C   0  0  0  0  0  0  0  0  0  0  0  0
  1  2  1  0  0  0  0
  2 12  1  0  0  0  0
  2  3  2  0  0  0  0
  3  9  1  0  0  0  0
  3  4  1  0  0  0  0
  4  5  2  0  0  0  0
  5  6  1  0  0  0  0
  5 24  1  0  0  0  0
  6  7  2  0  0  0  0
  6  8  1  0  0  0  0
  8  9  1  0  0  0  0
  8 14  1  0  0  0  0
  9 10  2  0  0  0  0
 10 11  1  0  0  0  0
 11 12  2  0  0  0  0
 11 13  1  0  0  0  0
 14 19  1  0  0  0  0
 14 15  1  0  0  0  0
 15 16  1  0  0  0  0
 16 17  1  0  0  0  0
 17 18  1  0  0  0  0
 17 20  1  0  0  0  0
 18 19  1  0  0  0  0
 20 21  1  0  0  0  0
 21 22  1  0  0  0  0
 22 23  1  0  0  0  0
 24 29  1  0  0  0  0
 24 25  2  0  0  0  0
 25 26  1  0  0  0  0
 26 27  2  0  0  0  0
 27 28  1  0  0  0  0
 27 30  1  0  0  0  0
 28 29  2  0  0  0  0
 30 31  1  0  0  0  0
M  END
$$$$
paxalisib
 OpenBabel04082404382D

 28 32  0  0  0  0  0  0  0  0999 V2000
   -3.5306   -0.0713    0.0000 C   0  0  0  0  0  0  0  0  0  0  0  0
   -3.2144   -1.0444    0.0000 C   0  0  0  0  0  0  0  0  0  0  0  0
   -2.2600   -1.2471    0.0000 C   0  0  0  0  0  0  0  0  0  0  0  0
   -1.6074   -0.5223    0.0000 N   0  0  0  0  0  0  0  0  0  0  0  0
   -0.6530   -0.7250    0.0000 C   0  0  0  0  0  0  0  0  0  0  0  0
   -0.3515   -1.6531    0.0000 C   0  0  0  0  0  0  0  0  0  0  0  0
   -1.9584   -2.1752    0.0000 N   0  0  0  0  0  0  0  0  0  0  0  0
   -2.6114   -2.9001    0.0000 C   0  0  0  0  0  0  0  0  0  0  0  0
   -3.5654   -2.6973    0.0000 C   0  0  0  0  0  0  0  0  0  0  0  0
   -3.8669   -1.7692    0.0000 O   0  0  0  0  0  0  0  0  0  0  0  0
    0.6030   -1.8557    0.0000 N   0  0  0  0  0  0  0  0  0  0  0  0
    1.2555   -1.1309    0.0000 C   0  0  0  0  0  0  0  0  0  0  0  0
    0.9539   -0.2028    0.0000 N   0  0  0  0  0  0  0  0  0  0  0  0
    0.0000   -0.0000    0.0000 C   0  0  0  0  0  0  0  0  0  0  0  0
   -0.3014    0.9275    0.0000 N   0  0  0  0  0  0  0  0  0  0  0  0
   -1.1460    1.4152    0.0000 C   0  0  0  0  0  0  0  0  0  0  0  0
   -1.1460    2.3904    0.0000 C   0  0  0  0  0  0  0  0  0  0  0  0
   -0.3014    2.8780    0.0000 O   0  0  0  0  0  0  0  0  0  0  0  0
    0.5432    2.3904    0.0000 C   0  0  0  0  0  0  0  0  0  0  0  0
    0.5432    1.4152    0.0000 C   0  0  0  0  0  0  0  0  0  0  0  0
    2.2094   -1.3337    0.0000 C   0  0  0  0  0  0  0  0  0  0  0  0
    3.0540   -0.8460    0.0000 C   0  0  0  0  0  0  0  0  0  0  0  0
    3.8986   -1.3336    0.0000 N   0  0  0  0  0  0  0  0  0  0  0  0
    3.8987   -2.3089    0.0000 C   0  0  0  0  0  0  0  0  0  0  0  0
    3.0541   -2.7965    0.0000 N   0  0  0  0  0  0  0  0  0  0  0  0
    2.2095   -2.3089    0.0000 C   0  0  0  0  0  0  0  0  0  0  0  0
    4.7433   -2.7965    0.0000 N   0  0  0  0  0  0  0  0  0  0  0  0
   -4.1926   -0.8367    0.0000 C   0  0  0  0  0  0  0  0  0  0  0  0
  1  2  1  0  0  0  0
  2 10  1  0  0  0  0
  2  3  1  0  0  0  0
  2 28  1  0  0  0  0
  3  7  1  0  0  0  0
  3  4  2  0  0  0  0
  4  5  1  0  0  0  0
  5 14  1  0  0  0  0
  5  6  2  0  0  0  0
  6  7  1  0  0  0  0
  6 11  1  0  0  0  0
  7  8  1  0  0  0  0
  8  9  1  0  0  0  0
  9 10  1  0  0  0  0
 11 12  2  0  0  0  0
 12 13  1  0  0  0  0
 12 21  1  0  0  0  0
 13 14  2  0  0  0  0
 14 15  1  0  0  0  0
 15 20  1  0  0  0  0
 15 16  1  0  0  0  0
 16 17  1  0  0  0  0
 17 18  1  0  0  0  0
 18 19  1  0  0  0  0
 19 20  1  0  0  0  0
 21 26  1  0  0  0  0
 21 22  2  0  0  0  0
 22 23  1  0  0  0  0
 23 24  2  0  0  0  0
 24 25  1  0  0  0  0
 24 27  1  0  0  0  0
 25 26  2  0  0  0  0
M  END
$$$$
